
 Fire Dynamics Simulator

 Current Date     : December 23, 2024  21:54:46
 Revision         : FDS-6.9.1-0-g889da6a-release
 Revision Date    : Sun Apr 7 17:05:06 2024 -0400
 Compiler         : Intel(R) Fortran Intel(R) 64 Compiler Classic for applications running on Intel(R) 64, Version 2021.9.0 Build 20230302_000000
 Compilation Date : Tue 04/09/2024  01:31 PM

 Number of MPI Processes:  1
 Number of OpenMP Threads: 4

 MPI version: 3.1
 MPI library version: Intel(R) MPI Library 2021.6 for Windows* OS


 Job TITLE        : Room with detected objects
 Job ID string    : room_simulation


 Grid Dimensions, Mesh     1

   Cells in the X Direction           100
   Cells in the Y Direction            50
   Cells in the Z Direction            30
   Number of Grid Cells            150000


 Physical Dimensions, Mesh     1

   Length (m)                      10.000
   Width  (m)                       5.000
   Height (m)                       3.000

 Miscellaneous Parameters

   Total Number of Grid Cells      150000
   Maximum Cell Aspect Ratio        1.000
   Initial Time Step (s)            0.092
   CFL Velocity Norm                    2
   Simulation Start Time (s)          0.0
   Simulation End Time (s)            1.0
   Background Pressure (Pa)     101325.00
   Ambient Temperature (C)          20.00

   3D Cartesian
   VLES Calculation
   Eddy Viscosity Model:  Deardorff (C_DEARDORFF = 0.10)
   Surface INERT Eddy Viscosity Model:  WALE (C_WALE = 0.60)
   Surface FIRE Eddy Viscosity Model:  WALE (C_WALE = 0.60)
   Surface wood Eddy Viscosity Model:  WALE (C_WALE = 0.60)
   Surface leather Eddy Viscosity Model:  WALE (C_WALE = 0.60)
   Surface metal Eddy Viscosity Model:  WALE (C_WALE = 0.60)
   Turbulent Prandtl Number:         0.50
   Turbulent Schmidt Number:         0.50


 Pressure solver information

   Solver:                            FFT
   Velocity tolerance (m/s):    5.000E-02
   Press eqn res tol (1/s^2):   2.000E+03
   Max pressure iterations:            10


 Background Stratification

      Z (m)     P_0 (Pa)    TMP_0 (C)
   ------------------------------------
        2.95    101290.42     20.00
        2.85    101291.59     20.00
        2.75    101292.77     20.00
        2.65    101293.93     20.00
        2.55    101295.11     20.00
        2.45    101296.28     20.00
        2.35    101297.45     20.00
        2.25    101298.62     20.00
        2.15    101299.80     20.00
        2.05    101300.96     20.00
        1.95    101302.14     20.00
        1.85    101303.31     20.00
        1.75    101304.48     20.00
        1.65    101305.65     20.00
        1.55    101306.83     20.00
        1.45    101308.00     20.00
        1.35    101309.17     20.00
        1.25    101310.34     20.00
        1.15    101311.51     20.00
        1.05    101312.69     20.00
        0.95    101313.86     20.00
        0.85    101315.03     20.00
        0.75    101316.20     20.00
        0.65    101317.38     20.00
        0.55    101318.54     20.00
        0.45    101319.72     20.00
        0.35    101320.89     20.00
        0.25    101322.06     20.00
        0.15    101323.23     20.00
        0.05    101324.41     20.00


 Mass Fraction Transformation Matrix to Convert Species Mixtures (Columns) to Primitive Species (Rows)

                         AIR       REAC_FUE  PRODUCTS
   NITROGEN              0.762470  0.000000  0.672827
   OXYGEN                0.230997  0.000000  0.000000
   CARBON DIOXIDE        0.000591  0.000000  0.241262
   WATER VAPOR           0.005941  0.000000  0.072227
   CARBON MONOXIDE       0.000000  0.000000  0.000000
   SOOT                  0.000000  0.000000  0.013684
   HYDROGEN              0.000000  0.000000  0.000000
   HYDROGEN CYANIDE      0.000000  0.000000  0.000000
   REAC_FUEL             0.000000  1.000000  0.000000


 Primitive Species Information

   NITROGEN
   Gas Species
   Molecular Weight (g/mol)                28.01340
   Ambient Density (kg/m^3)                1.165
           Enthalpy of Formation (J/kg)  0.000E+00

   OXYGEN
   Gas Species
   Molecular Weight (g/mol)                31.99880
   Ambient Density (kg/m^3)                1.330
           Enthalpy of Formation (J/kg)  0.000E+00

   CARBON DIOXIDE
   Gas Species
   Molecular Weight (g/mol)                44.00950
   Ambient Density (kg/m^3)                1.830
           Enthalpy of Formation (J/kg) -8.941E+06

   WATER VAPOR
   Gas Species
   Molecular Weight (g/mol)                18.01528
   Ambient Density (kg/m^3)                0.749
           Enthalpy of Formation (J/kg) -1.342E+07

   CARBON MONOXIDE
   Gas Species
   Molecular Weight (g/mol)                28.01010
   Ambient Density (kg/m^3)                1.164
           Enthalpy of Formation (J/kg) -3.946E+06

   SOOT
   Gas Species
   Molecular Weight (g/mol)                12.01070
   Ambient Density (kg/m^3)                0.499
           Enthalpy of Formation (J/kg)  0.000E+00

   HYDROGEN
   Gas Species
   Molecular Weight (g/mol)                 2.01588
   Ambient Density (kg/m^3)                0.084
           Enthalpy of Formation (J/kg)  0.000E+00

   HYDROGEN CYANIDE
   Gas Species
   Molecular Weight (g/mol)                27.02534
   Ambient Density (kg/m^3)                1.123
           Enthalpy of Formation (J/kg)  4.924E+06

   REAC_FUEL
   Gas Species
   Molecular Weight (g/mol)               130.42922
   Ambient Density (kg/m^3)                5.422
   Assumed Enthalpy of Formation (J/kg) -1.589E+06


 Tracked (Lumped) Species Information

   AIR
   Molecular Weight (g/mol)            28.75198
   Ambient Density (kg/m^3)            1.195
   Initial Mass Fraction               1.000
   Enthalpy of Formation (J/kg)     -8.504E+04

   Sub Species                    Mass Fraction     Mole Fraction
   NITROGEN                       7.624699E-01      7.825727E-01
   OXYGEN                         2.309974E-01      2.075588E-01
   CARBON DIOXIDE                 5.914650E-04      3.864118E-04
   WATER VAPOR                    5.941209E-03      9.482037E-03
 
     Viscosity (kg/m/s) Ambient,  293 K:  1.796E-05
                                  500 K:  2.612E-05
                                 1000 K:  4.125E-05
                                 1500 K:  5.371E-05
                                 2000 K:  6.476E-05
   Therm. Cond. (W/m/K) Ambient,  293 K:  2.556E-02
                                  500 K:  3.814E-02
                                 1000 K:  6.686E-02
                                 1500 K:  9.249E-02
                                 2000 K:  1.153E-01
        Enthalpy (J/kg) Ambient,  293 K: -9.012E+04
                                  500 K:  1.222E+05
                                 1000 K:  6.721E+05
                                 1500 K:  1.270E+06
                                 2000 K:  1.896E+06
    Spec. Heat (J/kg/K) Ambient,  293 K:  1.016E+03
                                  500 K:  1.042E+03
                                 1000 K:  1.156E+03
                                 1500 K:  1.229E+03
                                 2000 K:  1.270E+03
   Diff. Coeff. (m^2/s) Ambient,  293 K:  1.991E-05
                                  500 K:  4.961E-05
                                 1000 K:  1.580E-04
                                 1500 K:  3.095E-04
                                 2000 K:  4.984E-04
 Gibbs Energy Amb. (kJ/mol),  293 K: -5.873E+01
                                  500 K: -1.007E+02
                                 1000 K: -2.117E+02
                                 1500 K: -3.312E+02
                                 2000 K: -4.568E+02

   REAC_FUEL
   Molecular Weight (g/mol)           130.42922
   Ambient Density (kg/m^3)            5.422
   Initial Mass Fraction               0.000
   Enthalpy of Formation (J/kg)     -1.589E+06

   Sub Species                    Mass Fraction     Mole Fraction
   REAC_FUEL                      1.000000E+00      1.000000E+00
 
     Viscosity (kg/m/s) Ambient,  293 K:  3.754E-05
                                  500 K:  5.420E-05
                                 1000 K:  8.520E-05
                                 1500 K:  1.108E-04
                                 2000 K:  1.336E-04
   Therm. Cond. (W/m/K) Ambient,  293 K:  1.180E-02
                                  500 K:  1.703E-02
                                 1000 K:  2.677E-02
                                 1500 K:  3.483E-02
                                 2000 K:  4.197E-02
        Enthalpy (J/kg) Ambient,  293 K: -1.590E+06
                                  500 K: -1.544E+06
                                 1000 K: -1.433E+06
                                 1500 K: -1.321E+06
                                 2000 K: -1.210E+06
    Spec. Heat (J/kg/K) Ambient,  293 K:  2.231E+02
                                  500 K:  2.231E+02
                                 1000 K:  2.231E+02
                                 1500 K:  2.231E+02
                                 2000 K:  2.231E+02
   Diff. Coeff. (m^2/s) Ambient,  293 K:  1.548E-05
                                  500 K:  3.846E-05
                                 1000 K:  1.222E-04
                                 1500 K:  2.393E-04
                                 2000 K:  3.853E-04

   PRODUCTS
   Molecular Weight (g/mol)            28.86117
   Ambient Density (kg/m^3)            1.200
   Initial Mass Fraction               0.000
   Enthalpy of Formation (J/kg)     -3.127E+06

   Sub Species                    Mass Fraction     Mole Fraction
   NITROGEN                       6.728271E-01      6.931889E-01
   CARBON DIOXIDE                 2.412616E-01      1.582179E-01
   WATER VAPOR                    7.222708E-02      1.157106E-01
   CARBON MONOXIDE                0.000000E+00      0.000000E+00
   SOOT                           1.368424E-02      3.288262E-02
   HYDROGEN CYANIDE               0.000000E+00      0.000000E+00
 
     Viscosity (kg/m/s) Ambient,  293 K:  1.613E-05
                                  500 K:  2.392E-05
                                 1000 K:  3.879E-05
                                 1500 K:  5.106E-05
                                 2000 K:  6.186E-05
   Therm. Cond. (W/m/K) Ambient,  293 K:  2.288E-02
                                  500 K:  3.580E-02
                                 1000 K:  6.641E-02
                                 1500 K:  9.457E-02
                                 2000 K:  1.196E-01
        Enthalpy (J/kg) Ambient,  293 K: -3.132E+06
                                  500 K: -2.909E+06
                                 1000 K: -2.310E+06
                                 1500 K: -1.646E+06
                                 2000 K: -9.439E+05
    Spec. Heat (J/kg/K) Ambient,  293 K:  1.046E+03
                                  500 K:  1.113E+03
                                 1000 K:  1.273E+03
                                 1500 K:  1.374E+03
                                 2000 K:  1.431E+03
   Diff. Coeff. (m^2/s) Ambient,  293 K:  1.944E-05
                                  500 K:  4.913E-05
                                 1000 K:  1.581E-04
                                 1500 K:  3.106E-04
                                 2000 K:  5.008E-04
 Gibbs Energy Amb. (kJ/mol),  293 K: -1.693E+02
                                  500 K: -2.113E+02
                                 1000 K: -3.235E+02
                                 1500 K: -4.456E+02
                                 2000 K: -5.746E+02


 Gas Phase Reaction Information

      Fuel                                           Heat of Combustion (kJ/kg)
      REAC_FUEL                                                      20723.6714
      EPUMO2:                                                        14222.9716

      Primitive Species Stoich. Coeff.
      Species ID                                                          Molar
      NITROGEN                                                         0.500000
      OXYGEN                                                          -5.939058
      CARBON DIOXIDE                                                   5.214058
      WATER VAPOR                                                      3.550000
      SOOT                                                             1.085942
      REAC_FUEL                                                       -1.000000

      Tracked (Lumped) Species Stoich. Coeff.
      Species ID                                             Molar         Mass
      AIR                                               -28.613855    -6.307675
      REAC_FUEL                                          -1.000000    -1.000000
      PRODUCTS                                           33.024797     7.307675

      Reaction Kinetics

      Fast chemistry

      ODE Solver:  EXPLICIT EULER

      Extinction Model:  EXTINCTION 1
      Auto-Ignition Temperature (C):            -273.1
      Critical Flame Temperature (C):           1427.0

      Prescribed Radiative Fraction:             0.350


 Material Information


 Surface Conditions

   0 INERT (DEFAULT)

   1 FIRE
     HRR Per Unit Area (kW/m2)       1000.0
     REAC_FUEL Mass Flux (kg/s/m2)   4.825E-02

   2 wood

   3 leather

   4 metal

   5 OPEN
     Passive Vent to Atmosphere

   6 MIRROR
     Symmetry Plane

   7 INTERPOLATED

   8 PERIODIC

   9 HVAC

  10 MASSLESS TRACER

  11 DROPLET

  12 MASSLESS TARGET

  13 PERIODIC FLOW ONLY


 Lagrangian Particle Classes


 Cut-off Density and Temperature

    Minimum Temperature:  -259.1 C
    Maximum Temperature:  2726.8 C
    Minimum Density:  1.195E-01 kg/m3
    Maximum Density:  2.271E+02 kg/m3


 Slice File Information, Mesh     1

   1 Nodes:   0 100  20  20   0  30, Quantity: TEMPERATURE


 Radiation Model Information

   Number of control angles  104
   Time step increment         3
   Angle increment             5
   Theta band N_phi   Solid angle
     1:        4     0.120
     2:       12     0.114
     3:       16     0.127
     4:       20     0.120
     5:       20     0.120
     6:       16     0.127
     7:       12     0.114
     8:        4     0.120
   Using gray gas absorption.
   Mean beam length  1.000E-01 m


 Pressure Zone Information

   1 Volume: 1.4796E+02 m3, Cells: 147961, Mesh: 1, Indices: (100,50,30)
 
 

 Run Time Diagnostics

       Time Step        1   December 23, 2024  21:54:48
       Step Size:    0.922E-01 s, Total Time:      0.092 s
       Pressure Iterations: 1
       Maximum Velocity Error:  0.30E-02 on Mesh 1 at (73,12,17)
       Maximum Pressure Error:  0.54E-05 on Mesh 1 at (74,16,4)
       ---------------------------------------------------------------
       Max CFL number:  0.24E-01 at (7,16,21)
       Max divergence: -0.62E-05 at (23,10,2)
       Min divergence: -0.12E-01 at (45,25,4)
       Max VN number:   0.34E-01 at (47,6,17)
 
       Time Step        2   December 23, 2024  21:54:48
       Step Size:    0.922E-01 s, Total Time:       0.18 s
       Pressure Iterations: 2
       Maximum Velocity Error:  0.29E-01 on Mesh 1 at (44,23,1)
       Maximum Pressure Error:  0.84E+00 on Mesh 1 at (46,20,3)
       ---------------------------------------------------------------
       Max CFL number:  0.24E-01 at (7,16,21)
       Max divergence:  0.11E+01 at (47,20,4)
       Min divergence: -0.19E-02 at (43,30,29)
       Max VN number:   0.30E-01 at (55,12,13)
       Total Heat Release Rate:             99.566 kW
 
       Time Step        3   December 23, 2024  21:54:49
       Step Size:    0.922E-01 s, Total Time:       0.28 s
       Pressure Iterations: 1
       Maximum Velocity Error:  0.48E-01 on Mesh 1 at (45,24,1)
       Maximum Pressure Error:  0.85E+01 on Mesh 1 at (45,30,5)
       ---------------------------------------------------------------
       Max CFL number:  0.19E+00 at (45,22,3)
       Max divergence:  0.28E+01 at (46,23,6)
       Min divergence: -0.40E-02 at (83,27,29)
       Max VN number:   0.37E-01 at (45,22,1)
       Total Heat Release Rate:            217.603 kW
       Radiation Loss to Boundaries:        -8.094 kW
 
       Time Step        4   December 23, 2024  21:54:50
       Step Size:    0.922E-01 s, Total Time:       0.37 s
       Pressure Iterations: 4
       Maximum Velocity Error:  0.45E-01 on Mesh 1 at (44,23,1)
       Maximum Pressure Error:  0.66E+02 on Mesh 1 at (45,25,1)
       ---------------------------------------------------------------
       Max CFL number:  0.48E+00 at (46,20,5)
       Max divergence:  0.83E+01 at (45,23,1)
       Min divergence: -0.59E-02 at (69,11,17)
       Max VN number:   0.72E-01 at (46,23,6)
       Total Heat Release Rate:            345.654 kW
       Radiation Loss to Boundaries:       -38.353 kW
 
       Time Step        5   December 23, 2024  21:54:51
       Step Size:    0.822E-01 s, Total Time:       0.45 s
       Pressure Iterations: 5
       Maximum Velocity Error:  0.38E-01 on Mesh 1 at (44,23,1)
       Maximum Pressure Error:  0.16E+04 on Mesh 1 at (45,23,1)
       ---------------------------------------------------------------
       Max CFL number:  0.88E+00 at (45,22,2)
       Max divergence:  0.37E+01 at (47,20,2)
       Min divergence: -0.74E+00 at (45,24,1)
       Max VN number:   0.46E+00 at (45,23,1)
       Total Heat Release Rate:            470.198 kW
       Radiation Loss to Boundaries:      -161.407 kW
 
       Time Step        6   December 23, 2024  21:54:53
       Step Size:    0.822E-01 s, Total Time:       0.53 s
       Pressure Iterations: 4
       Maximum Velocity Error:  0.40E-01 on Mesh 1 at (45,23,1)
       Maximum Pressure Error:  0.73E+03 on Mesh 1 at (56,22,1)
       ---------------------------------------------------------------
       Max CFL number:  0.97E+00 at (46,20,4)
       Max divergence:  0.43E+01 at (45,25,2)
       Min divergence: -0.16E+01 at (46,20,2)
       Max VN number:   0.47E+00 at (44,22,4)
       Total Heat Release Rate:            587.834 kW
       Radiation Loss to Boundaries:      -411.776 kW
 
       Time Step        7   December 23, 2024  21:54:53
       Step Size:    0.571E-01 s, Total Time:       0.59 s
       Pressure Iterations: 5
       Maximum Velocity Error:  0.42E-01 on Mesh 1 at (44,23,1)
       Maximum Pressure Error:  0.87E+03 on Mesh 1 at (56,24,1)
       ---------------------------------------------------------------
       Max CFL number:  0.82E+00 at (45,23,2)
       Max divergence:  0.56E+01 at (46,20,3)
       Min divergence: -0.38E+01 at (45,23,2)
       Max VN number:   0.35E+00 at (44,24,2)
       Total Heat Release Rate:            720.436 kW
       Radiation Loss to Boundaries:      -409.551 kW
 
       Time Step        8   December 23, 2024  21:54:54
       Step Size:    0.453E-01 s, Total Time:       0.64 s
       Pressure Iterations: 6
       Maximum Velocity Error:  0.33E-01 on Mesh 1 at (44,23,1)
       Maximum Pressure Error:  0.72E+03 on Mesh 1 at (56,24,1)
       ---------------------------------------------------------------
       Max CFL number:  0.89E+00 at (46,20,3)
       Max divergence:  0.54E+01 at (45,23,3)
       Min divergence: -0.17E+01 at (56,26,3)
       Max VN number:   0.52E+00 at (44,24,2)
       Total Heat Release Rate:            806.351 kW
       Radiation Loss to Boundaries:      -527.660 kW
 
       Time Step        9   December 23, 2024  21:54:55
       Step Size:    0.453E-01 s, Total Time:       0.68 s
       Pressure Iterations: 5
       Maximum Velocity Error:  0.38E-01 on Mesh 1 at (44,23,2)
       Maximum Pressure Error:  0.68E+03 on Mesh 1 at (45,23,1)
       ---------------------------------------------------------------
       Max CFL number:  0.99E+00 at (45,23,4)
       Max divergence:  0.35E+01 at (46,20,3)
       Min divergence: -0.25E+01 at (45,23,4)
       Max VN number:   0.36E+00 at (44,24,2)
       Total Heat Release Rate:            872.976 kW
       Radiation Loss to Boundaries:      -522.313 kW
 
       Time Step       10   December 23, 2024  21:54:56
       Step Size:    0.374E-01 s, Total Time:       0.72 s
       Pressure Iterations: 4
       Maximum Velocity Error:  0.45E-01 on Mesh 1 at (45,23,4)
       Maximum Pressure Error:  0.63E+03 on Mesh 1 at (45,23,1)
       ---------------------------------------------------------------
       Max CFL number:  0.88E+00 at (56,30,6)
       Max divergence:  0.47E+01 at (45,23,4)
       Min divergence: -0.83E+00 at (46,25,6)
       Max VN number:   0.33E+00 at (55,31,6)
       Total Heat Release Rate:            956.799 kW
       Radiation Loss to Boundaries:      -553.430 kW
 
       Time Step       20   December 23, 2024  21:55:04
       Step Size:    0.164E-01 s, Total Time:       0.96 s
       Pressure Iterations: 2
       Maximum Velocity Error:  0.28E-01 on Mesh 1 at (44,23,9)
       Maximum Pressure Error:  0.47E+03 on Mesh 1 at (45,23,1)
       ---------------------------------------------------------------
       Max CFL number:  0.87E+00 at (45,23,8)
       Max divergence:  0.74E+01 at (45,25,6)
       Min divergence: -0.20E+01 at (52,20,8)
       Max VN number:   0.24E+00 at (56,22,8)
       Total Heat Release Rate:           1174.423 kW
       Radiation Loss to Boundaries:      -464.904 kW
 
       Time Step       23   December 23, 2024  21:55:06
       Step Size:    0.790E-02 s, Total Time:       1.00 s
       Pressure Iterations: 2
       Maximum Velocity Error:  0.29E-01 on Mesh 1 at (47,26,5)
       Maximum Pressure Error:  0.18E+04 on Mesh 1 at (45,23,1)
       ---------------------------------------------------------------
       Max CFL number:  0.44E+00 at (45,24,6)
       Max divergence:  0.11E+02 at (45,24,6)
       Min divergence: -0.27E+01 at (48,20,10)
       Max VN number:   0.13E+00 at (45,24,6)
       Total Heat Release Rate:           1430.016 kW
       Radiation Loss to Boundaries:      -523.203 kW
 


 Time Stepping Wall Clock Time (s):       20.262
 Total Elapsed Wall Clock Time (s):       28.073

STOP: FDS completed successfully (CHID: room_simulation)
